<?xml version="1.0" encoding="ISO-8859-1"?>
<febio_spec version="3.0">
	<Module type="solid"/>
	<Control>
		<analysis>STATIC</analysis>
		<time_steps>10</time_steps>
		<step_size>0.1</step_size>
		<solver>
			<max_refs>15</max_refs>
			<max_ups>10</max_ups>
			<diverge_reform>1</diverge_reform>
			<reform_each_time_step>1</reform_each_time_step>
			<dtol>0.001</dtol>
			<etol>0.01</etol>
			<rtol>0</rtol>
			<lstol>0.9</lstol>
			<min_residual>1e-20</min_residual>
			<qnmethod>BFGS</qnmethod>
			<rhoi>0</rhoi>
		</solver>
		<time_stepper>
			<dtmin>0.01</dtmin>
			<dtmax>0.1</dtmax>
			<max_retries>5</max_retries>
			<opt_iter>10</opt_iter>
		</time_stepper>
	</Control>
	<Globals>
		<Constants>
			<T>0</T>
			<R>0</R>
			<Fc>0</Fc>
		</Constants>
	</Globals>
	<Material>
		<material id="1" name="Material1" type="neo-Hookean">
			<density>1</density>
			<E>1</E>
			<v>0.3</v>
		</material>
		<material id="2" name="rigid" type="rigid body">
			<density>1</density>
			<center_of_mass>1,0,0.5</center_of_mass>
		</material>
	</Material>
	<Mesh>
		<Nodes name="Object01">
			<node id="1">0.5,-0.5,0</node>
			<node id="2">0.5,-0.5,1</node>
			<node id="3">0.5,0.5,0</node>
			<node id="4">0.5,0.5,1</node>
			<node id="5">1.5,-0.5,0</node>
			<node id="6">1.5,-0.5,1</node>
			<node id="7">1.5,0.5,0</node>
			<node id="8">1.5,0.5,1</node>
		</Nodes>
		<Nodes name="Detached1">
			<node id="9">-0.5,-0.5,0</node>
			<node id="10">-0.5,-0.5,0.333333333</node>
			<node id="11">-0.5,-0.5,0.666666667</node>
			<node id="12">-0.5,-0.5,1</node>
			<node id="13">-0.5,-0.166666667,0</node>
			<node id="14">-0.5,-0.166666667,0.333333333</node>
			<node id="15">-0.5,-0.166666667,0.666666667</node>
			<node id="16">-0.5,-0.166666667,1</node>
			<node id="17">-0.5,0.166666667,0</node>
			<node id="18">-0.5,0.166666667,0.333333333</node>
			<node id="19">-0.5,0.166666667,0.666666667</node>
			<node id="20">-0.5,0.166666667,1</node>
			<node id="21">-0.5,0.5,0</node>
			<node id="22">-0.5,0.5,0.333333333</node>
			<node id="23">-0.5,0.5,0.666666667</node>
			<node id="24">-0.5,0.5,1</node>
			<node id="25">-0.166666667,-0.5,0</node>
			<node id="26">-0.166666667,-0.5,0.333333333</node>
			<node id="27">-0.166666667,-0.5,0.666666667</node>
			<node id="28">-0.166666667,-0.5,1</node>
<!-- ... 2177 like lines cut -->
		</Nodes>
		<Elements type="hex8" name="Part2">
			<elem id="1">1,5,7,3,2,6,8,4</elem>
		</Elements>
		<Elements type="hex8" name="Part1">
			<elem id="2">9,354,1236,353,352,1234,1990,1235</elem>
			<elem id="3">354,75,645,1236,1234,644,1238,1990</elem>
			<elem id="4">353,1236,643,74,1235,1990,1240,642</elem>
			<elem id="5">1236,645,219,643,1990,1238,1074,1240</elem>
			<elem id="6">352,1234,1990,1235,73,640,1248,641</elem>
			<elem id="7">1234,644,1238,1990,640,217,1072,1248</elem>
			<elem id="8">1235,1990,1240,642,641,1248,1073,218</elem>
			<elem id="9">1990,1238,1074,1240,1248,1072,325,1073</elem>
			<elem id="10">75,416,1239,645,644,1237,1991,1238</elem>
			<elem id="11">416,25,418,1239,1237,417,1475,1991</elem>
			<elem id="12">645,1239,751,219,1238,1991,1243,1074</elem>
			<elem id="13">1239,418,114,751,1991,1475,752,1243</elem>
			<elem id="14">644,1237,1991,1238,217,748,1251,1072</elem>
			<elem id="15">1237,417,1475,1991,748,113,750,1251</elem>
			<elem id="16">1238,1991,1243,1074,1072,1251,1118,325</elem>
			<elem id="17">1991,1475,752,1243,1251,750,251,1118</elem>
			<elem id="18">74,643,1242,366,642,1240,1992,1241</elem>
			<elem id="19">643,219,671,1242,1240,1074,1244,1992</elem>
			<elem id="20">366,1242,369,13,1241,1992,1310,367</elem>
			<elem id="21">1242,671,86,369,1992,1244,672,1310</elem>
<!-- ... 1708 like lines cut -->
		</Elements>
		<Surface name="FixedDisplacement1">
			<quad4 id="1">353,9,352,1235</quad4>
			<quad4 id="2">74,353,1235,642</quad4>
			<quad4 id="3">1235,352,73,641</quad4>
			<quad4 id="4">642,1235,641,218</quad4>
			<quad4 id="5">366,74,642,1241</quad4>
			<quad4 id="6">13,366,1241,367</quad4>
			<quad4 id="7">1241,642,218,666</quad4>
			<quad4 id="8">367,1241,666,84</quad4>
			<quad4 id="9">641,73,355,1247</quad4>
			<quad4 id="10">218,641,1247,648</quad4>
			<quad4 id="11">1247,355,10,357</quad4>
			<quad4 id="12">648,1247,357,77</quad4>
			<quad4 id="13">666,218,648,1253</quad4>
			<quad4 id="14">84,666,1253,371</quad4>
			<quad4 id="15">1253,648,77,370</quad4>
			<quad4 id="16">371,1253,370,14</quad4>
			<quad4 id="17">357,10,356,1259</quad4>
			<quad4 id="18">77,357,1259,649</quad4>
			<quad4 id="19">1259,356,76,647</quad4>
			<quad4 id="20">649,1259,647,221</quad4>
<!-- ... 124 like lines cut -->
		</Surface>
		<Surface name="Rigid1">
			<quad4 id="1">57,578,1718,577</quad4>
			<quad4 id="2">578,194,1014,1718</quad4>
			<quad4 id="3">577,1718,1013,193</quad4>
			<quad4 id="4">1718,1014,284,1013</quad4>
			<quad4 id="5">194,591,1725,1014</quad4>
			<quad4 id="6">591,61,592,1725</quad4>
			<quad4 id="7">1014,1725,1028,284</quad4>
			<quad4 id="8">1725,592,200,1028</quad4>
			<quad4 id="9">193,1013,1732,580</quad4>
			<quad4 id="10">1013,284,1018,1732</quad4>
			<quad4 id="11">580,1732,582,58</quad4>
			<quad4 id="12">1732,1018,196,582</quad4>
			<quad4 id="13">284,1028,1739,1018</quad4>
			<quad4 id="14">1028,200,596,1739</quad4>
			<quad4 id="15">1018,1739,595,196</quad4>
			<quad4 id="16">1739,596,62,595</quad4>
			<quad4 id="17">58,582,1746,581</quad4>
			<quad4 id="18">582,196,1019,1746</quad4>
			<quad4 id="19">581,1746,1017,195</quad4>
			<quad4 id="20">1746,1019,288,1017</quad4>
<!-- ... 124 like lines cut -->
		</Surface>
	</Mesh>
	<MeshDomains>
		<SolidDomain name="Part2" mat="rigid"/>
		<SolidDomain name="Part1" mat="Material1"/>
	</MeshDomains>
	<Boundary>
		<bc name="FixedDisplacement1" type="fix" node_set="@surface:FixedDisplacement1">
			<dofs>x,y,z</dofs>
		</bc>
		<bc name="Rigid1" type="rigid" node_set="@surface:Rigid1">
			<rb>2</rb>
		</bc>
	</Boundary>
	<Rigid>
		<rigid_constraint name="RigidConstraint1" type="fix">
			<rb>2</rb>
			<dofs>Ry,Rz,Ru,Rv,Rw</dofs>
		</rigid_constraint>
		<rigid_constraint name="RigidConstraint2" type="prescribe">
			<rb>2</rb>
			<dof>Rx</dof>
			<value lc="1">0.1</value>
			<relative>0</relative>
		</rigid_constraint>
	</Rigid>
	<Contact>
	</Contact>
	<LoadData>
		<load_controller id="1" type="loadcurve">
			<interpolate>SMOOTH</interpolate>
			<points>
				<point>0,0</point>
				<point>1,1</point>
			</points>
		</load_controller>
	</LoadData>
	<Output>
		<plotfile type="febio">
			<var type="displacement"/>
			<var type="relative volume"/>
			<var type="stress"/>
		</plotfile>
	</Output>
</febio_spec>
