<?xml version="1.0" encoding="ISO-8859-1"?>
<febio_spec version="3.0">
	<Module type="solid"/>
	<Control>
		<analysis>STATIC</analysis>
		<time_steps>10</time_steps>
		<step_size>0.1</step_size>
		<solver>
			<max_refs>15</max_refs>
			<max_ups>10</max_ups>
			<diverge_reform>1</diverge_reform>
			<reform_each_time_step>1</reform_each_time_step>
			<dtol>0.001</dtol>
			<etol>0.01</etol>
			<rtol>0</rtol>
			<lstol>0.9</lstol>
			<min_residual>1e-20</min_residual>
			<qnmethod>BFGS</qnmethod>
			<rhoi>0</rhoi>
		</solver>
		<time_stepper>
			<dtmin>0.01</dtmin>
			<dtmax>0.1</dtmax>
			<max_retries>5</max_retries>
			<opt_iter>10</opt_iter>
		</time_stepper>
	</Control>
	<Globals>
		<Constants>
			<T>0</T>
			<R>0</R>
			<Fc>0</Fc>
		</Constants>
	</Globals>
	<Material>
		<material id="1" name="Material1" type="neo-Hookean">
			<density>1</density>
			<E>1</E>
			<v>0.3</v>
		</material>
		<material id="2" name="rigid" type="rigid body">
			<density>1</density>
			<center_of_mass>1,0,0.5</center_of_mass>
		</material>
	</Material>
	<Mesh>
		<Nodes name="Object01">
			<node id="1">0.5,-0.5,0</node>
			<node id="2">0.5,-0.5,1</node>
			<node id="3">0.5,0.5,0</node>
			<node id="4">0.5,0.5,1</node>
			<node id="5">1.5,-0.5,0</node>
			<node id="6">1.5,-0.5,1</node>
			<node id="7">1.5,0.5,0</node>
			<node id="8">1.5,0.5,1</node>
		</Nodes>
		<Nodes name="Detached1">
			<node id="9">-0.5,-0.5,0</node>
			<node id="10">-0.5,-0.5,0.333333333</node>
			<node id="11">-0.5,-0.5,0.666666667</node>
			<node id="12">-0.5,-0.5,1</node>
			<node id="13">-0.5,-0.166666667,0</node>
			<node id="14">-0.5,-0.166666667,0.333333333</node>
			<node id="15">-0.5,-0.166666667,0.666666667</node>
			<node id="16">-0.5,-0.166666667,1</node>
			<node id="17">-0.5,0.166666667,0</node>
			<node id="18">-0.5,0.166666667,0.333333333</node>
			<node id="19">-0.5,0.166666667,0.666666667</node>
			<node id="20">-0.5,0.166666667,1</node>
			<node id="21">-0.5,0.5,0</node>
			<node id="22">-0.5,0.5,0.333333333</node>
			<node id="23">-0.5,0.5,0.666666667</node>
			<node id="24">-0.5,0.5,1</node>
			<node id="25">-0.166666667,-0.5,0</node>
			<node id="26">-0.166666667,-0.5,0.333333333</node>
			<node id="27">-0.166666667,-0.5,0.666666667</node>
			<node id="28">-0.166666667,-0.5,1</node>
<!-- ... 15605 like lines cut -->
		</Nodes>
		<Elements type="hex8" name="Part2">
			<elem id="1">1,5,7,3,2,6,8,4</elem>
		</Elements>
		<Elements type="hex8" name="Part1">
			<elem id="2">9,2208,8292,2207,2206,8290,13906,8291</elem>
			<elem id="3">2208,354,3975,8292,8290,3974,8294,13906</elem>
			<elem id="4">2207,8292,3973,353,8291,13906,8296,3972</elem>
			<elem id="5">8292,3975,1236,3973,13906,8294,6996,8296</elem>
			<elem id="6">2206,8290,13906,8291,352,3970,8304,3971</elem>
			<elem id="7">8290,3974,8294,13906,3970,1234,6994,8304</elem>
			<elem id="8">8291,13906,8296,3972,3971,8304,6995,1235</elem>
			<elem id="9">13906,8294,6996,8296,8304,6994,1990,6995</elem>
			<elem id="10">354,2502,8295,3975,3974,8293,13907,8294</elem>
			<elem id="11">2502,75,2505,8295,8293,2504,8315,13907</elem>
			<elem id="12">3975,8295,4849,1236,8294,13907,8299,6996</elem>
			<elem id="13">8295,2505,645,4849,13907,8315,4850,8299</elem>
			<elem id="14">3974,8293,13907,8294,1234,4846,8307,6994</elem>
			<elem id="15">8293,2504,8315,13907,4846,644,4848,8307</elem>
			<elem id="16">8294,13907,8299,6996,6994,8307,6998,1990</elem>
			<elem id="17">13907,8315,4850,8299,8307,4848,1238,6998</elem>
			<elem id="18">353,3973,8298,2498,3972,8296,13908,8297</elem>
			<elem id="19">3973,1236,4843,8298,8296,6996,8300,13908</elem>
			<elem id="20">2498,8298,2501,74,8297,13908,8338,2500</elem>
			<elem id="21">8298,4843,643,2501,13908,8300,4844,8338</elem>
<!-- ... 13804 like lines cut -->
		</Elements>
		<Surface name="FixedDisplacement1">
			<quad4 id="1">2207,9,2206,8291</quad4>
			<quad4 id="2">353,2207,8291,3972</quad4>
			<quad4 id="3">8291,2206,352,3971</quad4>
			<quad4 id="4">3972,8291,3971,1235</quad4>
			<quad4 id="5">2498,353,3972,8297</quad4>
			<quad4 id="6">74,2498,8297,2500</quad4>
			<quad4 id="7">8297,3972,1235,4840</quad4>
			<quad4 id="8">2500,8297,4840,642</quad4>
			<quad4 id="9">3971,352,2494,8303</quad4>
			<quad4 id="10">1235,3971,8303,4837</quad4>
			<quad4 id="11">8303,2494,73,2497</quad4>
			<quad4 id="12">4837,8303,2497,641</quad4>
			<quad4 id="13">4840,1235,4837,8309</quad4>
			<quad4 id="14">642,4840,8309,3220</quad4>
			<quad4 id="15">8309,4837,641,3219</quad4>
			<quad4 id="16">3220,8309,3219,218</quad4>
			<quad4 id="17">2499,74,2500,8339</quad4>
			<quad4 id="18">366,2499,8339,4002</quad4>
			<quad4 id="19">8339,2500,642,4842</quad4>
			<quad4 id="20">4002,8339,4842,1241</quad4>
<!-- ... 556 like lines cut -->
		</Surface>
		<Surface name="Rigid1">
			<quad4 id="1">57,2432,11966,2431</quad4>
			<quad4 id="2">2432,578,4670,11966</quad4>
			<quad4 id="3">2431,11966,4669,577</quad4>
			<quad4 id="4">11966,4670,1718,4669</quad4>
			<quad4 id="5">578,3110,11973,4670</quad4>
			<quad4 id="6">3110,194,3112,11973</quad4>
			<quad4 id="7">4670,11973,6160,1718</quad4>
			<quad4 id="8">11973,3112,1014,6160</quad4>
			<quad4 id="9">577,4669,11980,3106</quad4>
			<quad4 id="10">4669,1718,6157,11980</quad4>
			<quad4 id="11">3106,11980,3109,193</quad4>
			<quad4 id="12">11980,6157,1013,3109</quad4>
			<quad4 id="13">1718,6160,11987,6157</quad4>
			<quad4 id="14">6160,1014,3583,11987</quad4>
			<quad4 id="15">6157,11987,3582,1013</quad4>
			<quad4 id="16">11987,3583,284,3582</quad4>
			<quad4 id="17">194,3111,12018,3112</quad4>
			<quad4 id="18">3111,591,4701,12018</quad4>
			<quad4 id="19">3112,12018,6162,1014</quad4>
			<quad4 id="20">12018,4701,1725,6162</quad4>
<!-- ... 556 like lines cut -->
		</Surface>
	</Mesh>
	<MeshDomains>
		<SolidDomain name="Part2" mat="rigid"/>
		<SolidDomain name="Part1" mat="Material1"/>
	</MeshDomains>
	<Boundary>
		<bc name="FixedDisplacement1" type="fix" node_set="@surface:FixedDisplacement1">
			<dofs>x,y,z</dofs>
		</bc>
		<bc name="Rigid1" type="rigid" node_set="@surface:Rigid1">
			<rb>2</rb>
		</bc>
	</Boundary>
	<Rigid>
		<rigid_constraint name="RigidConstraint1" type="fix">
			<rb>2</rb>
			<dofs>Ry,Rz,Ru,Rv,Rw</dofs>
		</rigid_constraint>
		<rigid_constraint name="RigidConstraint2" type="prescribe">
			<rb>2</rb>
			<dof>Rx</dof>
			<value lc="1">0.1</value>
			<relative>0</relative>
		</rigid_constraint>
	</Rigid>
	<Contact>
	</Contact>
	<LoadData>
		<load_controller id="1" type="loadcurve">
			<interpolate>SMOOTH</interpolate>
			<points>
				<point>0,0</point>
				<point>1,1</point>
			</points>
		</load_controller>
	</LoadData>
	<Output>
		<plotfile type="febio">
			<var type="displacement"/>
			<var type="relative volume"/>
			<var type="stress"/>
		</plotfile>
	</Output>
</febio_spec>
